CURSAT ver 2.0              Date:         02-21-2019      Hour:       08:37:59
Input file:   test 10 sampling events x 12 species.txt
Output file:  test 10 sampling events x 12 species.out
Number of columns:           10 
Number of rows:              12 
Number of repetitions:       100 

 0  0  1  1  0  0  0  1  0  0 
 1  0  0  1  0  0  1  0  0  0 
 1  1  1  0  1  0  1  1  1  1 
 1  0  0  0  0  1  1  1  0  0 
 0  0  1  1  0  0  0  0  0  0 
 0  0  0  1  0  1  0  0  0  0 
 0  0  1  0  0  1  0  1  0  0 
 1  0  1  1  0  0  1  0  0  0 
 0  1  0  1  1  1  0  0  1  1 
 1  0  1  0  0  0  1  1  0  0 
 0  1  1  1  1  0  0  0  1  1 
 1  0  0  1  0  0  1  0  0  0 

 1  1  0  0  1  0  0  0  0  1 
 0  1  0  0  0  0  1  0  1  0 
 0  0  1  1  0  0  0  0  0  0 
 0  0  0  0  0  1  0  1  0  0 
 1  0  0  0  1  0  0  0  0  1 
 0  1  0  1  0  1  1  1  1  0 
 1  0  0  0  1  1  0  1  0  1 
 0  1  0  1  0  0  1  0  1  0 
 0  1  1  1  0  1  0  1  0  0 
 1  0  0  0  1  0  0  0  0  1 
 1  0  1  1  1  0  0  0  0  1 
 1  1  0  0  1  0  1  0  1  1 

 1  0  0  1  1  0  0  0  1  0 
 1  0  0  0  1  1  1  0  1  1 
 0  1  0  1  0  1  0  1  0  0 
 0  0  1  0  0  1  0  0  0  0 
 1  0  0  1  1  0  0  0  0  0 
 1  0  1  0  1  0  1  0  1  1 
 0  0  1  1  0  0  0  0  0  0 
 1  0  0  1  1  1  1  0  1  1 
 1  1  1  0  1  0  0  1  1  0 
 0  0  0  1  0  1  0  0  0  0 
 1  1  0  1  1  0  0  1  0  0 
 1  0  0  0  1  1  1  0  1  1 

 1  1  1  0  1  1  1  0  1  1 
 1  0  0  1  1  1  0  0  0  0 
 0  0  1  1  0  0  0  0  1  1 
 0  0  0  1  0  0  0  1  0  1 
 0  1  1  0  0  0  1  0  1  0 
 1  0  0  0  1  1  0  1  0  0 
 0  1  1  0  0  0  1  1  1  1 
 1  0  1  1  1  1  0  0  1  0 
 1  0  0  0  1  1  0  1  0  0 
 0  1  1  1  0  0  1  0  1  1 
 0  1  1  0  0  0  1  0  1  0 
 1  1  0  1  1  1  1  0  0  0 

 0  0  1  1  0  0  0  1  1  0 
 1  0  0  0  1  0  0  1  1  1 
 0  0  1  0  0  1  1  0  0  1 
 0  1  1  0  0  0  0  0  0  1 
 0  0  0  1  0  0  0  1  1  0 
 1  1  0  0  1  1  0  1  1  0 
 0  1  1  1  0  0  0  0  0  0 
 1  0  0  0  1  1  0  1  1  1 
 0  1  0  0  0  1  1  1  1  0 
 0  0  1  1  0  0  0  0  0  1 
 0  0  0  1  0  1  1  1  1  0 
 1  0  0  1  1  0  0  1  1  1 

 1  0  1  0  1  1  1  0  1  1 
 1  0  0  0  1  0  0  1  1  1 
 0  1  1  1  0  1  1  1  0  0 
 0  0  0  0  0  0  0  1  0  0 
 1  0  1  0  0  1  1  0  1  1 
 1  0  0  0  1  0  0  0  1  1 
 0  0  1  0  0  1  1  0  0  0 
 1  0  1  0  1  1  1  1  1  1 
 1  1  0  1  1  0  0  0  1  1 
 0  0  1  0  0  1  1  1  0  0 
 1  1  1  1  0  1  1  0  1  1 
 1  0  0  0  1  0  0  1  1  1 

 0  1  1  1  0  0  0  1  0  0 
 1  1  0  0  0  0  1  1  0  1 
 1  0  1  0  1  1  1  0  1  1 
 1  0  0  0  0  0  1  0  0  1 
 0  0  1  1  0  0  0  0  0  0 
 0  1  0  0  1  0  0  1  0  0 
 0  0  1  1  0  0  0  0  0  0 
 1  1  1  0  1  0  1  1  0  1 
 0  1  0  0  1  1  0  1  1  0 
 1  0  1  1  0  0  1  0  0  1 
 0  0  1  1  1  1  0  0  1  0 
 1  1  0  1  0  0  1  1  0  1 

 0  0  0  1  0  1  1  1  1  1 
 0  1  0  1  0  0  1  0  0  1 
 1  0  1  0  1  0  0  0  0  0 
 0  0  0  0  0  0  0  0  0  0 
 0  0  0  1  0  1  1  1  1  1 
 1  1  0  1  0  0  1  0  0  1 
 0  0  0  0  0  1  0  1  1  0 
 1  1  0  1  0  0  1  0  0  1 
 1  0  1  1  1  0  1  0  0  1 
 0  0  0  0  0  1  0  1  1  0 
 1  0  1  1  1  1  1  1  1  1 
 0  1  0  1  0  1  1  1  1  1 

 1  1  0  0  1  0  1  0  0  0 
 0  1  0  0  1  0  1  1  0  0 
 1  0  0  1  0  1  0  1  1  1 
 0  0  1  0  0  0  0  1  0  0 
 1  1  0  0  0  0  1  0  0  0 
 0  1  1  0  1  0  1  0  1  1 
 1  0  1  0  0  0  0  0  0  0 
 1  1  0  0  1  0  1  1  1  1 
 0  1  1  1  1  1  1  0  1  1 
 1  0  0  0  0  0  0  1  0  0 
 1  1  0  1  0  1  1  0  1  1 
 0  1  0  0  1  0  1  1  0  0 

 1  1  1  0  1  1  0  1  1  1 
 0  1  0  1  1  0  0  0  0  1 
 1  0  0  0  0  0  1  1  0  0 
 0  0  0  0  0  0  0  1  0  0 
 1  1  1  0  0  1  0  0  1  0 
 0  1  0  1  1  0  0  0  0  1 
 1  0  1  0  0  1  0  1  1  0 
 1  1  0  1  1  0  0  0  0  1 
 0  1  0  0  1  0  1  0  0  1 
 1  0  1  0  0  1  0  1  1  0 
 1  1  1  0  0  1  1  0  1  0 
 0  1  1  1  1  1  0  0  1  1 

 1  0  0  0  0  1  0  1  0  1 
 0  1  0  1  1  0  1  0  0  0 
 0  1  1  0  0  1  0  0  0  0 
 0  1  0  0  0  1  0  0  1  0 
 1  0  0  0  0  0  0  1  0  1 
 0  0  0  1  1  0  1  0  1  0 
 1  0  0  0  0  1  0  1  1  1 
 0  1  0  1  1  0  1  0  0  0 
 0  0  1  0  0  0  0  0  1  0 
 1  1  0  0  0  1  0  1  0  1 
 1  0  1  0  0  0  0  1  0  1 
 1  1  0  1  1  0  1  1  0  1 

 1  1  1  1  0  0  0  1  0  0 
 0  1  1  1  1  0  1  0  0  1 
 1  0  0  0  0  1  1  1  0  1 
 1  0  0  0  0  0  1  1  1  1 
 0  0  0  0  0  0  0  0  0  0 
 0  1  1  1  1  0  0  0  1  0 
 1  0  0  0  0  0  0  1  1  0 
 0  1  1  1  1  0  1  0  0  1 
 0  1  1  1  0  1  0  0  1  0 
 1  0  0  0  0  0  1  1  0  1 
 0  0  0  0  0  1  0  0  0  0 
 0  1  1  1  1  0  1  0  0  1 

 0  0  1  1  0  1  0  0  1  1 
 1  0  1  1  0  0  1  0  0  0 
 1  1  0  0  1  1  1  1  0  1 
 1  0  0  0  0  0  1  0  0  1 
 0  0  0  0  0  1  0  0  1  0 
 0  1  1  1  1  0  0  0  0  0 
 0  0  0  0  0  1  0  0  1  1 
 1  1  1  1  1  1  1  0  0  0 
 0  1  1  1  1  0  0  1  0  0 
 1  0  0  0  0  1  1  0  1  1 
 0  1  0  0  1  1  0  1  1  0 
 1  0  1  1  0  0  1  0  1  0 

 0  1  1  0  1  0  1  1  0  0 
 0  0  0  0  0  1  0  1  0  0 
 1  1  1  1  0  0  1  0  1  1 
 0  0  1  0  0  0  1  0  0  0 
 0  1  0  0  1  0  0  0  0  0 
 1  0  0  1  0  1  0  1  0  0 
 0  1  1  0  1  0  1  0  0  0 
 1  1  0  1  0  1  0  1  0  0 
 1  0  0  1  0  0  0  1  1  1 
 0  1  1  0  1  0  1  0  0  0 
 1  1  0  1  1  0  0  0  1  1 
 0  0  0  0  1  1  0  1  0  0 

 0  1  0  1  0  1  0  1  1  1 
 1  0  0  1  0  1  0  0  0  0 
 0  0  1  0  0  0  1  1  1  1 
 0  0  0  0  1  0  0  1  0  1 
 0  1  0  0  0  0  0  0  1  0 
 1  0  0  1  1  1  0  0  0  0 
 0  1  0  0  1  0  0  1  1  1 
 1  0  0  1  0  1  0  0  1  0 
 0  0  1  1  1  1  1  0  0  0 
 0  1  0  0  0  0  0  1  1  1 
 0  1  1  0  0  0  1  0  1  0 
 1  1  0  1  0  1  0  0  0  0 

 1  0  1  0  0  0  1  0  1  0 
 1  0  0  0  0  1  0  0  0  0 
 0  1  1  1  0  0  1  0  1  1 
 0  0  0  0  1  0  0  1  0  0 
 0  0  1  0  0  0  1  0  1  0 
 1  1  0  1  1  1  0  1  0  0 
 0  0  1  0  1  0  1  1  1  0 
 1  1  1  1  0  1  1  0  1  0 
 1  1  0  1  1  0  0  1  0  1 
 0  0  1  0  0  0  1  0  1  0 
 0  1  1  1  0  0  1  0  1  1 
 1  0  0  0  0  1  0  0  0  0 

 0  0  1  1  0  0  1  0  0  0 
 0  1  0  0  0  0  0  0  0  1 
 1  0  1  1  1  1  1  0  0  0 
 0  0  0  0  0  0  1  1  1  0 
 0  0  1  1  0  0  0  0  0  0 
 1  1  0  0  0  1  0  1  1  1 
 0  0  1  1  0  0  1  1  1  0 
 1  1  1  1  0  1  0  0  0  1 
 1  0  0  0  1  1  0  1  1  0 
 0  0  1  1  0  0  1  0  0  0 
 1  0  1  1  1  1  0  0  0  0 
 0  1  0  0  0  0  0  0  0  1 

 0  1  0  1  1  1  1  1  1  0 
 0  0  0  0  0  1  1  1  0  0 
 1  0  0  0  1  0  0  0  1  1 
 0  0  1  0  1  0  0  0  1  0 
 0  1  0  1  0  1  1  1  0  0 
 1  0  1  0  0  1  1  1  0  0 
 0  1  1  1  1  0  0  0  1  0 
 1  0  0  0  0  1  1  1  0  0 
 1  0  1  0  0  1  1  1  0  1 
 0  1  0  1  1  0  0  0  1  0 
 1  1  0  1  0  1  1  1  0  1 
 0  1  0  1  0  1  1  1  0  0 

 0  1  0  0  0  0  1  1  0  0 
 1  0  1  1  1  0  1  0  1  1 
 1  1  0  1  1  1  0  1  1  0 
 1  1  0  1  1  0  0  1  1  0 
 0  0  0  0  0  0  1  0  0  0 
 0  0  1  0  0  1  1  0  0  1 
 0  1  0  0  0  0  0  1  0  0 
 1  0  1  1  1  1  1  0  1  1 
 0  0  0  0  0  1  1  0  0  0 
 1  1  0  1  1  0  0  1  1  0 
 0  0  0  0  0  1  1  0  0  0 
 1  0  1  1  1  0  1  0  1  1 

 0  1  1  1  0  1  1  0  0  0 
 1  0  0  0  1  1  0  1  0  1 
 1  0  0  1  1  0  1  1  1  0 
 1  0  0  1  1  0  1  1  0  0 
 0  1  1  0  0  0  0  0  0  0 
 0  0  0  0  0  1  0  0  1  1 
 0  1  1  1  0  0  1  0  0  0 
 1  0  0  0  1  1  0  1  1  1 
 0  0  0  0  0  1  0  0  1  0 
 1  1  1  1  1  0  1  1  0  0 
 0  1  1  0  0  0  0  0  1  0 
 1  1  1  0  1  1  0  1  0  1 

 1  1  0  0  0  1  0  1  0  1 
 0  0  0  0  1  0  0  1  0  1 
 1  1  1  1  0  0  1  0  0  0 
 1  1  0  0  0  0  0  0  1  0 
 0  0  0  0  0  1  0  0  0  0 
 0  0  0  0  1  0  0  1  1  1 
 1  1  0  0  0  1  0  0  1  0 
 0  0  0  0  1  0  0  1  0  1 
 0  0  1  1  0  0  1  1  1  1 
 1  1  0  0  0  1  0  0  0  0 
 0  0  1  1  0  1  1  0  0  0 
 0  0  0  0  1  1  0  1  0  1 

 0  1  1  1  1  0  1  0  0  1 
 0  0  1  0  1  1  1  0  0  1 
 0  1  0  1  0  1  0  1  0  0 
 1  1  0  1  0  1  0  0  1  0 
 0  0  0  0  1  0  0  0  0  0 
 1  0  1  0  1  0  1  1  1  1 
 1  1  0  1  0  0  0  0  1  0 
 0  0  1  0  1  1  1  1  0  1 
 1  0  1  0  1  0  1  1  1  1 
 0  1  0  1  0  1  0  0  0  0 
 0  0  0  0  1  0  0  1  0  0 
 0  0  1  0  1  1  1  0  0  1 

 1  0  1  0  1  0  1  1  0  0 
 0  0  0  0  0  0  0  0  0  0 
 0  0  1  1  1  1  1  1  1  1 
 0  1  0  0  1  0  0  0  0  0 
 1  0  1  0  0  0  1  1  0  0 
 0  1  0  0  0  1  0  0  0  1 
 1  1  1  0  1  0  1  1  0  0 
 0  0  1  0  0  1  1  1  0  1 
 0  1  0  1  0  1  0  0  1  1 
 1  0  1  0  1  0  1  1  0  0 
 1  0  1  1  0  1  1  1  1  1 
 1  0  0  0  0  0  0  0  0  0 

 0  0  0  0  1  0  1  0  0  1 
 1  1  0  1  0  1  1  0  1  1 
 1  0  0  0  0  1  0  1  0  0 
 1  0  1  0  0  1  0  0  0  0 
 0  0  0  0  1  0  1  0  0  0 
 0  1  1  1  0  0  1  0  1  1 
 0  0  1  0  1  0  0  0  0  0 
 1  1  0  1  0  1  1  0  1  1 
 0  0  1  0  0  0  1  1  0  1 
 1  0  0  0  1  1  0  0  0  0 
 0  0  0  0  1  0  1  1  0  0 
 1  1  0  1  1  1  1  0  1  1 

 1  1  0  1  1  1  0  0  0  0 
 1  1  1  0  1  0  0  0  1  0 
 0  0  0  1  0  1  0  1  1  1 
 0  0  0  1  0  1  1  0  1  0 
 0  0  0  0  1  0  0  0  0  0 
 1  1  1  0  1  0  1  1  0  1 
 0  0  0  1  0  1  1  0  0  0 
 1  1  1  0  1  0  0  1  1  1 
 1  1  0  0  1  0  1  1  0  1 
 0  0  0  1  0  1  0  0  1  0 
 0  0  0  0  1  0  0  1  0  1 
 1  1  1  0  1  0  0  0  1  0 

 1  0  0  0  0  0  1  0  0  1 
 1  1  0  0  0  0  0  1  0  0 
 0  0  1  0  1  1  0  0  1  1 
 0  0  0  1  0  0  0  0  0  0 
 0  0  0  0  0  0  1  0  0  1 
 1  1  1  1  1  0  0  1  1  0 
 0  0  0  1  0  0  1  0  0  1 
 1  1  1  0  1  0  0  1  1  1 
 1  0  1  1  1  1  0  0  1  0 
 0  0  0  0  0  0  1  0  0  1 
 0  0  1  0  1  1  1  0  1  1 
 1  1  0  0  0  0  1  1  0  0 

 0  0  1  0  1  1  1  0  1  0 
 1  0  0  0  1  1  0  0  1  0 
 0  1  0  0  0  0  1  1  0  1 
 0  0  0  1  0  0  1  0  0  0 
 0  0  1  0  0  0  0  0  0  0 
 1  1  0  1  1  1  0  0  1  0 
 0  0  1  1  0  0  1  0  0  0 
 1  1  0  0  1  1  0  0  1  0 
 0  1  0  1  1  1  0  1  1  1 
 0  0  1  0  0  0  1  0  0  0 
 0  1  1  0  0  0  0  1  0  1 
 1  0  1  0  1  1  0  0  1  0 

 1  1  0  1  1  1  1  1  1  0 
 1  1  1  1  1  0  0  1  1  0 
 0  0  1  0  0  1  1  0  0  1 
 0  0  1  0  0  1  0  0  0  0 
 1  0  0  0  1  0  1  0  0  0 
 1  1  0  1  1  0  0  1  1  1 
 0  0  0  0  0  1  1  0  0  0 
 1  1  1  1  1  0  1  1  1  1 
 1  1  0  1  1  0  0  1  1  1 
 0  0  1  0  0  1  1  0  0  0 
 1  0  0  0  1  0  1  0  0  1 
 1  1  1  1  1  0  0  1  1  0 

 1  1  0  1  0  0  0  1  1  0 
 0  0  1  1  0  1  0  0  0  1 
 0  0  1  0  1  1  1  1  1  0 
 0  0  1  0  0  1  0  1  1  0 
 1  1  0  0  0  0  0  0  0  0 
 0  0  0  1  0  0  0  0  0  1 
 1  1  0  0  0  0  0  1  1  0 
 0  0  1  1  0  1  0  0  0  1 
 0  0  0  1  1  0  1  0  0  0 
 1  1  1  0  0  1  0  1  1  0 
 1  1  0  0  1  0  1  0  0  0 
 1  1  1  1  0  1  0  0  0  1 

 0  0  1  0  1  0  1  0  0  1 
 0  1  1  0  0  0  1  1  0  0 
 1  1  0  1  1  0  0  0  0  1 
 0  1  0  0  1  1  0  0  1  1 
 0  0  1  0  0  0  1  0  0  0 
 0  0  1  1  0  1  1  1  1  0 
 0  0  0  0  1  1  0  0  1  1 
 0  1  1  1  0  0  1  1  0  0 
 1  0  1  1  0  1  1  0  1  0 
 0  1  0  0  1  0  0  0  0  1 
 1  0  1  1  0  0  1  0  0  0 
 0  1  1  0  0  0  1  1  0  0 

 1  0  0  1  1  1  0  0  0  0 
 1  0  1  0  0  0  0  1  0  1 
 0  1  0  1  1  1  0  0  1  0 
 0  0  0  0  0  0  1  0  0  0 
 1  0  0  1  1  1  0  0  0  0 
 1  0  1  0  0  0  1  1  1  1 
 0  0  0  1  1  1  1  0  0  0 
 1  0  1  1  1  1  0  1  1  1 
 1  1  0  0  0  0  1  0  1  0 
 0  0  0  1  1  1  0  0  0  0 
 1  1  0  1  1  1  0  0  1  0 
 1  0  1  0  0  0  0  1  0  1 

 1  0  0  1  1  1  1  0  0  1 
 1  0  0  0  0  0  0  1  0  0 
 0  1  1  0  1  1  0  1  1  1 
 0  0  0  0  0  0  0  1  0  1 
 1  0  0  1  1  1  1  0  0  0 
 1  1  1  0  0  0  0  0  1  0 
 0  0  0  1  1  1  1  0  0  1 
 1  1  1  0  1  1  0  1  1  0 
 1  1  1  0  0  0  0  0  1  0 
 0  0  0  1  1  1  1  1  0  1 
 1  1  1  1  1  1  1  0  1  0 
 1  0  0  1  0  0  1  1  0  0 

 0  0  1  0  0  1  0  1  0  1 
 0  1  0  1  1  0  0  1  1  0 
 1  0  0  1  0  0  1  0  0  1 
 0  0  0  1  0  0  0  0  0  0 
 0  0  1  0  0  1  0  1  0  1 
 0  1  0  0  1  0  0  1  1  0 
 0  0  1  0  0  1  0  0  0  1 
 0  1  0  1  1  0  0  1  1  1 
 1  0  0  0  0  0  1  1  0  0 
 0  0  1  1  0  1  0  0  0  1 
 1  0  1  0  0  1  1  1  0  1 
 0  1  1  1  1  1  0  1  1  0 

 0  1  0  1  1  1  0  1  1  0 
 1  0  0  0  0  0  0  0  1  1 
 0  1  0  1  1  1  1  1  0  0 
 0  1  1  1  1  0  0  0  0  0 
 0  0  0  0  0  1  0  1  0  0 
 1  0  1  0  0  0  1  0  1  1 
 0  1  1  1  1  1  0  1  0  0 
 1  0  0  0  0  1  1  1  1  1 
 0  0  1  0  0  0  1  0  1  0 
 0  1  0  1  1  1  0  1  0  0 
 0  0  0  0  0  1  1  1  0  0 
 1  0  0  0  0  0  0  0  1  1 

 0  0  1  1  0  0  0  1  1  1 
 1  1  0  0  0  0  0  0  0  1 
 1  0  1  0  1  1  1  1  1  0 
 1  0  0  0  0  0  0  0  1  0 
 0  0  1  1  0  0  0  1  0  1 
 0  1  0  0  0  0  1  0  0  1 
 0  0  1  1  0  0  0  1  1  0 
 1  1  1  0  0  0  1  1  0  1 
 0  0  0  0  1  1  1  0  0  1 
 1  0  1  1  0  0  0  1  1  0 
 0  0  1  1  1  1  1  1  0  1 
 1  1  0  1  0  0  0  0  0  1 

 0  1  0  0  1  0  1  1  0  1 
 1  0  1  0  0  1  0  0  1  1 
 1  1  0  0  1  1  1  0  0  0 
 1  1  0  1  1  1  1  0  0  0 
 0  0  0  0  0  0  0  1  0  1 
 0  0  1  1  0  0  0  0  1  1 
 0  1  0  1  1  0  1  1  0  0 
 1  0  1  0  0  1  0  0  1  1 
 0  0  0  1  0  0  0  0  0  1 
 1  1  0  0  1  1  1  1  0  0 
 0  0  0  0  0  0  0  1  0  1 
 1  0  1  0  0  1  0  1  1  1 

 1  0  1  0  1  1  0  0  0  0 
 1  0  0  0  1  0  0  1  1  1 
 0  0  1  1  0  1  0  1  1  1 
 0  1  1  0  0  1  1  1  1  1 
 1  0  0  0  0  0  0  0  0  0 
 1  1  0  1  1  0  1  0  0  0 
 0  1  1  0  0  1  1  0  0  0 
 1  0  0  1  1  0  0  1  1  1 
 1  1  0  1  1  0  1  0  0  0 
 0  0  1  0  0  1  0  1  1  1 
 1  0  0  1  0  0  0  0  0  0 
 1  0  0  0  1  0  0  1  1  1 

 1  0  1  0  1  1  1  0  0  0 
 1  1  0  0  1  0  0  0  1  1 
 0  0  0  0  0  0  0  1  1  1 
 0  0  0  1  0  0  0  0  1  1 
 1  0  1  0  0  1  1  0  0  0 
 1  1  0  1  1  0  0  0  0  0 
 0  0  1  1  0  1  1  0  0  0 
 1  1  0  0  1  0  0  0  1  1 
 1  0  0  1  1  0  0  1  0  0 
 0  0  1  0  0  1  1  0  1  1 
 1  0  1  0  0  1  1  1  0  0 
 1  1  1  0  1  1  1  0  1  1 

 0  1  1  0  1  0  0  0  0  0 
 0  1  0  1  0  0  0  0  0  0 
 1  0  1  0  1  1  1  1  0  1 
 0  0  0  0  1  0  0  0  1  0 
 0  0  1  0  0  0  0  0  0  0 
 0  1  0  1  0  0  0  1  1  0 
 0  0  1  0  1  0  0  0  1  0 
 0  1  1  1  0  0  0  1  0  0 
 1  1  0  0  0  1  1  1  1  1 
 0  0  1  0  1  0  0  0  0  0 
 1  0  1  0  0  1  1  1  0  1 
 0  1  0  1  0  0  0  0  0  0 

 1  1  0  1  0  1  1  1  0  0 
 0  1  0  1  1  0  1  0  1  1 
 1  0  0  0  0  0  0  1  0  1 
 1  0  1  0  0  0  0  1  0  1 
 0  1  0  1  0  1  1  0  0  0 
 0  1  1  1  1  0  1  0  1  0 
 1  0  1  0  0  1  0  1  0  0 
 0  1  0  1  1  0  1  0  1  1 
 0  1  1  1  0  0  1  0  0  0 
 1  0  0  0  0  1  0  1  0  1 
 0  1  0  1  0  1  1  0  0  0 
 0  1  0  1  1  1  1  0  1  1 

 1  0  0  0  0  0  0  0  0  0 
 1  1  1  0  0  0  1  0  0  0 
 0  1  0  0  1  0  1  1  1  1 
 0  1  0  1  0  1  1  0  0  0 
 0  0  0  0  0  0  0  0  0  0 
 1  0  1  1  1  1  0  0  1  0 
 0  0  0  1  0  1  0  0  0  0 
 1  1  1  0  1  0  1  0  1  0 
 1  0  0  1  1  1  0  1  1  1 
 0  1  0  0  0  0  1  0  0  0 
 0  0  0  0  1  0  0  1  1  1 
 1  1  1  0  0  0  1  0  0  0 

 1  1  0  1  0  0  0  1  0  0 
 1  1  0  1  0  1  0  1  0  0 
 0  0  1  0  1  0  1  0  1  1 
 0  0  0  0  0  0  0  0  0  0 
 0  1  0  0  0  0  0  1  0  0 
 1  1  1  1  1  1  0  1  1  1 
 0  0  0  0  0  0  0  0  0  0 
 1  1  1  1  1  1  0  1  1  1 
 1  1  1  1  1  0  1  1  1  1 
 0  0  0  0  0  0  0  0  0  0 
 0  1  1  0  1  0  1  1  1  1 
 1  1  0  1  0  1  0  1  0  0 

 1  1  1  1  1  0  0  0  0  0 
 0  0  0  0  0  0  0  0  1  0 
 1  1  0  1  1  0  1  1  0  1 
 1  0  0  1  1  1  0  0  0  0 
 0  1  1  0  0  0  0  0  0  0 
 0  0  0  0  0  1  0  1  1  1 
 1  1  1  1  1  1  0  0  0  0 
 0  1  0  0  0  0  0  1  1  1 
 0  0  0  0  0  1  1  1  0  1 
 1  1  1  1  1  0  0  0  0  0 
 0  1  1  0  0  0  1  1  0  1 
 0  0  1  0  0  0  0  0  1  0 

 0  0  0  0  0  1  1  0  1  1 
 0  0  0  0  0  0  0  0  0  0 
 1  0  0  0  1  0  1  0  1  1 
 0  1  1  1  0  0  0  1  1  0 
 0  0  0  0  0  1  1  0  0  1 
 0  1  1  1  0  0  0  1  0  0 
 0  1  1  1  0  1  1  1  1  1 
 0  0  0  0  0  0  1  0  0  1 
 1  1  1  1  1  0  0  1  0  0 
 0  0  0  0  0  1  1  0  1  1 
 1  0  0  0  1  1  1  0  0  1 
 0  0  0  0  0  1  0  0  0  0 

 1  0  0  0  1  1  1  0  0  0 
 0  1  0  0  0  1  0  0  0  0 
 1  1  0  0  1  0  1  1  1  1 
 0  1  1  1  0  0  0  0  0  0 
 1  0  0  0  1  1  1  0  0  0 
 0  0  1  1  0  1  0  1  1  0 
 1  0  1  1  1  0  1  0  0  0 
 1  1  0  0  1  1  1  1  1  0 
 0  0  1  1  0  1  0  1  1  1 
 1  1  0  0  1  0  1  0  0  0 
 1  0  0  0  1  1  1  1  1  1 
 0  1  0  0  0  1  0  0  0  0 

 1  1  0  1  0  1  0  0  1  1 
 0  1  0  0  1  0  0  0  0  0 
 1  0  1  1  1  1  1  0  0  0 
 0  0  0  0  1  1  0  1  0  0 
 1  1  0  1  0  0  0  0  1  1 
 0  1  0  0  0  0  0  1  0  0 
 1  0  0  1  0  1  0  1  1  1 
 1  1  0  1  1  0  0  0  0  0 
 0  1  1  0  0  0  1  1  0  0 
 1  0  0  1  1  1  0  0  1  1 
 1  1  1  1  0  0  1  0  1  1 
 0  1  0  0  1  0  0  0  1  1 

 1  0  0  1  1  0  0  0  1  0 
 1  0  1  1  1  1  1  0  1  0 
 0  1  0  0  0  1  0  1  0  1 
 0  0  0  0  0  1  0  0  0  0 
 1  0  0  1  0  0  0  0  1  0 
 1  1  1  1  1  0  1  0  1  0 
 0  0  0  0  0  0  0  0  0  0 
 1  1  1  1  1  1  1  0  1  0 
 1  1  0  1  1  0  0  1  1  1 
 0  0  0  0  0  1  0  0  0  0 
 1  1  0  1  0  0  0  1  1  1 
 1  0  1  1  1  1  1  0  1  0 

 0  1  0  0  1  1  0  1  1  1 
 0  0  1  1  1  1  0  1  1  0 
 0  1  1  1  0  0  1  0  0  0 
 1  0  1  1  0  0  0  0  0  0 
 0  1  0  0  0  1  0  0  0  1 
 1  0  0  0  1  1  1  1  1  0 
 1  1  0  0  0  0  0  0  0  1 
 0  1  1  1  1  1  1  1  1  0 
 1  0  0  0  1  1  1  1  1  0 
 0  1  1  1  0  0  0  0  0  1 
 0  1  0  0  0  1  1  0  0  1 
 0  0  1  1  1  1  0  1  1  1 

 0  0  0  1  1  0  1  1  0  1 
 0  0  0  1  0  1  0  0  1  1 
 1  1  1  0  0  1  0  1  0  0 
 0  0  0  0  0  1  0  1  0  0 
 0  0  0  0  1  0  1  0  0  1 
 0  0  1  1  0  0  0  0  1  1 
 0  0  0  0  1  0  1  1  0  0 
 0  0  1  1  0  1  0  0  1  1 
 1  1  1  1  0  0  0  0  0  1 
 0  0  0  0  1  1  1  1  0  0 
 1  1  1  0  1  0  1  0  0  1 
 0  0  0  1  1  1  1  0  1  1 

 0  1  0  1  1  1  1  1  1  0 
 0  0  0  0  0  1  1  1  0  0 
 1  0  0  0  1  0  0  0  1  1 
 0  0  1  0  1  0  0  0  1  0 
 0  1  0  1  0  1  1  1  0  0 
 1  0  1  0  0  1  1  1  0  0 
 0  1  1  1  1  0  0  0  1  0 
 1  0  0  0  0  1  1  1  0  0 
 1  0  1  0  0  1  1  1  0  1 
 0  1  0  1  1  0  0  0  1  0 
 1  1  0  1  0  1  1  1  0  1 
 0  1  0  1  0  1  1  1  0  0 

 1  0  0  0  1  0  1  1  0  0 
 0  0  1  1  0  1  1  1  1  1 
 1  1  0  1  1  1  0  0  1  0 
 0  0  0  1  0  1  0  0  1  0 
 1  0  0  0  1  0  1  1  0  0 
 0  0  1  0  0  0  1  1  0  1 
 1  0  0  0  1  0  0  0  0  0 
 1  0  1  1  1  1  1  1  1  1 
 0  1  0  0  0  0  1  1  0  0 
 1  0  0  1  1  1  0  0  1  0 
 1  1  0  0  1  0  1  1  0  0 
 0  0  1  1  0  1  1  1  1  1 

 0  1  0  1  0  1  1  0  0  0 
 1  0  0  0  1  1  0  1  0  1 
 1  0  1  1  1  0  1  1  1  0 
 1  0  0  1  1  0  1  1  0  0 
 0  1  0  0  0  0  0  0  0  0 
 0  0  1  0  0  1  0  0  1  1 
 0  1  0  1  0  0  1  0  0  0 
 1  0  1  0  1  1  0  1  1  1 
 0  0  1  0  0  1  0  0  1  0 
 1  1  0  1  1  0  1  1  0  0 
 0  1  1  0  0  0  0  0  1  0 
 1  1  0  0  1  1  0  1  0  1 

 1  1  0  1  1  1  0  1  0  1 
 0  0  0  0  0  0  0  1  0  1 
 1  1  1  1  1  0  0  0  0  0 
 1  1  0  0  1  0  1  0  1  0 
 0  0  0  1  0  1  0  1  0  1 
 0  0  0  0  0  0  1  1  1  1 
 1  1  0  1  1  1  1  0  1  0 
 0  0  0  1  0  0  0  1  0  1 
 0  0  1  0  0  0  1  1  1  1 
 1  1  0  1  1  1  0  0  0  0 
 0  0  1  1  0  1  0  1  0  1 
 0  0  0  0  0  1  0  1  0  1 

 0  0  1  1  1  0  1  0  1  1 
 0  0  1  0  1  1  1  0  0  0 
 0  1  0  1  0  1  0  1  1  1 
 1  0  0  1  0  1  0  0  0  1 
 0  0  0  0  1  0  0  0  1  0 
 1  0  1  0  1  0  1  1  0  0 
 1  0  0  1  0  0  0  0  1  1 
 0  0  1  0  1  1  1  1  1  0 
 1  1  1  0  1  0  1  1  0  0 
 0  0  0  1  0  1  0  0  1  1 
 0  1  0  0  1  0  0  1  1  0 
 0  0  1  0  1  1  1  0  0  0 

 1  0  1  0  0  1  1  1  0  1 
 0  0  0  0  1  0  0  0  0  1 
 0  0  1  1  1  1  1  1  1  0 
 0  1  0  0  1  1  0  0  0  0 
 1  0  1  0  0  0  1  1  0  1 
 0  1  0  0  0  0  0  0  0  1 
 1  1  1  0  0  1  1  1  0  0 
 0  0  1  0  1  0  1  1  0  1 
 0  1  0  1  0  0  0  0  1  1 
 1  0  1  0  1  1  1  1  0  0 
 1  0  1  1  0  0  1  1  1  1 
 1  0  0  0  1  0  0  0  0  1 

 0  0  0  1  1  0  0  1  1  1 
 1  1  0  0  0  0  0  0  0  1 
 1  0  0  1  0  1  0  0  1  0 
 1  0  1  1  0  0  1  0  1  0 
 0  0  0  0  1  0  0  1  0  0 
 0  1  1  0  0  0  1  0  0  1 
 0  0  1  1  1  0  1  1  1  0 
 1  1  0  0  0  0  0  0  0  1 
 0  0  1  0  0  1  1  0  0  1 
 1  0  0  1  1  0  0  1  1  0 
 0  0  0  0  1  1  0  1  0  0 
 1  1  0  0  1  0  0  1  0  1 

 1  1  0  1  1  1  0  0  0  0 
 1  1  1  0  1  0  0  1  1  0 
 0  0  0  1  0  1  0  1  1  1 
 0  0  0  1  0  1  1  1  1  0 
 0  0  0  0  1  0  0  0  0  0 
 1  1  1  0  1  0  1  0  0  1 
 0  0  0  1  0  1  1  0  0  0 
 1  1  1  0  1  0  0  1  1  1 
 1  1  0  0  1  0  1  0  0  1 
 0  0  0  1  0  1  0  1  1  0 
 0  0  0  0  1  0  0  0  0  1 
 1  1  1  0  1  0  0  1  1  0 

 1  0  0  0  1  0  1  0  0  1 
 1  1  0  0  1  0  0  0  0  0 
 0  0  1  0  0  1  0  1  1  1 
 0  0  0  1  0  0  0  0  0  0 
 0  0  0  0  1  0  1  0  0  1 
 1  1  1  1  1  0  0  1  1  0 
 0  0  0  1  0  0  1  0  0  1 
 1  1  1  0  1  0  0  1  1  1 
 1  0  1  1  1  1  0  1  1  0 
 0  0  0  0  0  0  1  0  0  1 
 0  0  1  0  1  1  1  1  1  1 
 1  1  0  0  1  0  1  0  0  0 

 1  0  1  0  1  1  1  0  1  0 
 0  0  0  0  0  1  0  0  1  0 
 1  1  0  0  1  0  1  1  0  1 
 1  0  0  1  1  0  1  0  0  0 
 0  0  1  0  0  0  0  0  0  0 
 0  1  0  1  0  1  0  0  1  0 
 1  0  1  1  1  0  1  0  0  0 
 0  1  0  0  0  1  0  0  1  0 
 0  1  0  1  0  1  0  1  1  1 
 1  0  1  0  1  0  1  0  0  0 
 0  1  1  0  0  0  0  1  0  1 
 0  0  1  0  0  1  0  0  1  0 

 0  1  0  1  1  1  1  1  1  0 
 0  1  1  1  1  0  0  0  1  0 
 0  0  1  0  0  1  1  1  0  1 
 1  0  1  0  0  1  0  1  0  0 
 0  0  0  0  1  0  1  0  0  0 
 1  1  0  1  1  0  0  0  1  1 
 1  0  0  0  0  1  1  1  0  0 
 0  1  1  1  1  0  1  0  1  1 
 1  1  0  1  1  0  0  0  1  1 
 0  0  1  0  0  1  1  1  0  0 
 0  0  0  0  1  0  1  0  0  1 
 0  1  1  1  1  0  0  0  1  0 

 1  1  0  1  0  1  1  0  1  0 
 0  0  1  1  0  0  0  0  0  1 
 0  0  1  0  1  1  1  1  1  0 
 0  0  1  0  0  0  0  0  1  0 
 1  1  0  0  0  1  1  0  0  0 
 0  0  0  1  0  0  0  0  0  1 
 1  1  0  0  0  1  1  0  1  0 
 0  0  1  1  0  1  1  0  0  1 
 0  0  0  1  1  0  0  1  0  0 
 1  1  1  0  0  1  1  0  1  0 
 1  1  0  0  1  1  1  1  0  0 
 1  1  1  1  0  0  0  0  0  1 

 0  1  0  0  1  0  0  1  0  0 
 0  0  0  0  0  0  0  1  0  0 
 1  1  1  1  1  0  0  0  0  1 
 0  0  0  0  1  1  1  0  1  0 
 0  1  0  0  0  0  0  0  0  0 
 0  0  0  1  0  1  1  1  1  0 
 0  1  0  0  1  1  1  0  1  0 
 0  1  0  1  0  0  0  1  0  0 
 1  0  1  1  0  1  1  1  1  1 
 0  1  0  0  1  0  0  0  0  0 
 1  1  1  1  0  0  0  0  0  1 
 0  0  0  0  0  0  0  1  0  0 

 1  0  0  1  1  1  1  1  0  0 
 1  0  1  0  0  0  0  0  0  1 
 0  1  0  1  1  0  1  1  1  0 
 0  0  0  0  0  0  0  1  0  0 
 1  0  0  1  1  1  1  0  0  0 
 1  0  1  0  0  0  0  0  1  1 
 0  0  0  1  1  1  1  1  0  0 
 1  0  1  1  1  0  1  0  1  1 
 1  1  0  0  0  0  0  0  1  0 
 0  0  0  1  1  1  1  1  0  0 
 1  1  0  1  1  1  1  0  1  0 
 1  0  1  0  0  1  0  0  0  1 

 0  0  0  1  1  1  0  0  0  1 
 1  0  0  0  0  0  1  1  0  0 
 1  1  1  0  1  1  0  1  1  1 
 1  0  0  0  0  0  0  1  0  1 
 0  0  0  1  1  1  0  0  0  0 
 0  1  1  0  0  0  1  0  1  0 
 0  0  0  1  1  1  0  0  0  1 
 1  1  1  0  1  1  1  1  1  0 
 0  1  1  0  0  0  0  0  1  0 
 1  0  0  1  1  1  0  1  0  1 
 0  1  1  1  1  1  0  0  1  0 
 1  0  0  1  0  0  1  1  0  0 

 0  0  1  0  0  1  0  0  0  1 
 0  1  0  1  1  0  0  0  1  0 
 1  0  0  1  0  0  1  0  0  1 
 0  0  0  1  0  0  0  1  0  0 
 0  0  1  0  0  1  0  0  0  1 
 0  1  0  0  1  0  0  1  1  0 
 0  0  1  0  0  1  0  1  0  1 
 0  1  0  1  1  0  0  0  1  1 
 1  0  0  0  0  0  1  1  0  0 
 0  0  1  1  0  1  0  0  0  1 
 1  0  1  0  0  1  1  0  0  1 
 0  1  1  1  1  1  0  0  1  0 

 1  1  1  0  1  1  1  1  1  0 
 0  0  0  0  0  0  1  0  1  1 
 1  1  1  1  1  1  0  1  0  0 
 1  1  0  0  1  0  0  0  0  0 
 0  0  1  0  0  1  1  1  1  0 
 0  0  0  0  0  0  1  0  1  1 
 1  1  1  0  1  1  0  1  0  0 
 0  0  1  0  0  1  1  1  1  1 
 0  0  0  1  0  0  1  0  1  0 
 1  1  1  0  1  1  0  1  0  0 
 0  0  1  1  0  1  1  1  1  0 
 0  0  0  0  0  0  1  0  1  1 

 0  0  1  1  0  1  0  1  0  1 
 1  1  0  0  0  0  1  0  0  1 
 1  0  1  0  1  0  1  1  1  0 
 1  0  0  0  0  0  1  0  0  0 
 0  0  1  1  0  1  0  1  0  1 
 0  1  0  0  0  0  0  0  0  1 
 0  0  1  1  0  1  0  1  0  0 
 1  1  1  0  0  0  1  1  0  1 
 0  0  0  0  1  0  0  0  1  1 
 1  0  1  1  0  1  1  1  0  0 
 0  0  1  1  1  1  0  1  1  1 
 1  1  0  1  0  1  1  0  0  1 

 0  1  0  0  0  0  1  1  0  1 
 1  0  1  0  1  1  0  0  1  1 
 1  1  0  0  1  1  1  0  0  0 
 1  1  0  1  1  1  1  0  0  0 
 0  0  0  0  0  0  0  1  0  1 
 0  0  1  1  0  0  0  0  1  1 
 0  1  0  1  0  0  1  1  0  0 
 1  0  1  0  1  1  0  0  1  1 
 0  0  0  1  0  0  0  0  0  1 
 1  1  0  0  1  1  1  1  0  0 
 0  0  0  0  0  0  0  1  0  1 
 1  0  1  0  1  1  0  1  1  1 

 1  0  0  1  1  1  0  1  1  1 
 1  0  0  0  1  0  0  0  0  0 
 0  0  1  1  0  1  0  1  1  1 
 0  1  0  1  0  1  1  0  0  0 
 1  0  0  0  0  0  0  1  1  1 
 1  1  0  0  1  0  1  0  0  0 
 0  1  0  1  0  1  1  1  1  1 
 1  0  0  0  1  0  0  1  1  1 
 1  1  1  0  1  0  1  0  0  0 
 0  0  0  1  0  1  0  1  1  1 
 1  0  1  0  0  0  0  1  1  1 
 1  0  0  0  1  0  0  0  0  0 

 0  0  1  0  1  1  1  0  1  0 
 0  1  0  0  1  0  0  0  0  0 
 0  0  0  0  0  0  0  1  1  0 
 1  0  0  1  0  0  0  0  0  1 
 0  0  1  0  1  1  1  0  1  0 
 1  1  0  1  1  0  0  0  0  1 
 1  0  1  1  0  1  1  0  1  1 
 0  1  0  0  1  0  0  0  1  0 
 1  0  0  1  1  0  0  1  0  1 
 0  0  1  0  0  1  1  0  1  0 
 0  0  1  0  1  1  1  1  1  0 
 0  1  1  0  1  1  1  0  0  0 

 1  1  1  1  1  0  1  0  0  1 
 0  1  0  0  0  0  0  1  0  0 
 0  0  0  1  1  0  0  1  0  1 
 0  0  0  1  1  1  0  1  1  0 
 1  1  1  0  0  0  1  0  0  1 
 0  1  0  0  0  1  0  0  1  0 
 1  0  1  1  1  1  1  0  1  1 
 0  1  0  0  0  0  0  1  0  1 
 0  1  0  0  0  1  0  0  1  0 
 1  0  1  1  1  0  1  1  0  1 
 1  1  1  0  0  0  1  0  0  1 
 1  1  1  0  0  0  1  1  0  0 

 0  1  0  0  0  0  1  1  0  0 
 0  1  0  0  1  1  1  0  1  1 
 1  0  0  0  0  0  0  1  0  1 
 0  0  1  1  0  0  0  1  0  1 
 0  1  0  0  0  0  1  0  0  0 
 0  1  1  1  1  1  1  0  1  0 
 0  0  1  1  0  0  0  1  0  0 
 0  1  0  0  1  1  1  0  1  1 
 1  1  1  1  0  0  1  0  0  0 
 0  0  0  0  0  0  0  1  0  1 
 1  1  0  0  0  0  1  0  0  0 
 0  1  0  0  1  1  1  0  1  1 

 1  0  0  0  0  0  1  1  0  0 
 1  1  1  0  1  0  0  0  1  0 
 0  1  0  0  1  0  1  0  1  1 
 0  1  0  1  1  1  0  0  1  0 
 0  0  0  0  0  0  1  1  0  0 
 1  0  1  1  0  1  0  0  0  0 
 0  0  0  1  0  1  1  1  0  0 
 1  1  1  0  1  0  1  0  1  0 
 1  0  0  1  0  1  0  0  0  1 
 0  1  0  0  1  0  1  1  1  0 
 0  0  0  0  0  0  1  1  0  1 
 1  1  1  0  1  0  0  1  1  0 

 0  0  1  0  1  0  0  0  1  1 
 0  1  0  0  0  1  0  0  0  0 
 1  1  1  1  1  0  0  0  1  1 
 0  1  1  0  1  0  1  1  1  1 
 0  0  0  0  0  0  0  0  0  0 
 1  0  0  1  0  1  1  1  0  0 
 0  0  1  0  1  0  1  1  1  1 
 1  1  0  1  0  1  0  0  0  0 
 1  0  0  1  0  0  1  1  0  0 
 0  1  1  0  1  0  0  0  1  1 
 1  0  0  1  0  0  0  0  0  0 
 0  1  0  0  0  1  0  0  0  0 

 1  0  0  1  1  0  1  0  1  0 
 1  0  1  1  1  1  1  1  0  1 
 0  1  0  0  0  1  0  0  1  0 
 0  0  0  0  0  1  0  0  0  0 
 0  0  0  1  0  0  1  0  1  0 
 1  0  1  1  1  0  1  1  0  1 
 0  0  0  0  0  0  0  0  1  0 
 1  0  1  1  1  1  1  1  1  1 
 1  1  0  1  1  0  1  0  0  0 
 0  0  0  0  0  1  0  0  1  0 
 0  1  0  1  0  0  1  0  1  0 
 1  0  1  1  1  1  1  1  0  1 

 1  0  0  0  0  0  1  0  0  0 
 1  1  1  1  1  0  0  0  0  0 
 0  1  1  1  1  0  0  0  1  1 
 0  1  1  1  1  1  0  1  0  0 
 1  0  0  0  0  0  1  0  0  0 
 1  0  0  0  0  1  0  1  1  0 
 0  0  0  0  0  1  1  1  0  0 
 1  1  1  1  1  0  0  0  1  0 
 1  0  0  0  0  1  0  1  1  1 
 0  1  1  1  1  0  1  0  0  0 
 1  0  0  0  0  0  1  0  1  1 
 1  1  1  1  1  0  1  0  0  0 

 1  0  0  0  0  0  0  0  1  1 
 0  0  1  1  0  0  0  1  0  1 
 0  1  1  1  1  1  1  0  1  0 
 0  0  1  1  0  0  0  0  1  0 
 1  0  0  0  0  0  0  0  0  1 
 0  0  0  0  0  1  0  1  0  1 
 1  0  0  0  0  0  0  0  1  0 
 0  0  1  1  0  1  0  1  0  1 
 0  1  0  0  1  1  1  0  0  1 
 1  0  1  1  0  0  0  0  1  0 
 1  1  0  0  1  1  1  0  0  1 
 1  0  1  1  0  0  0  1  0  1 

 0  0  1  0  1  1  0  0  0  0 
 0  0  1  0  0  1  1  1  0  1 
 1  1  0  1  1  0  1  1  0  0 
 0  0  0  0  1  0  1  1  1  0 
 0  0  1  0  0  0  0  0  0  0 
 0  1  1  0  0  1  0  0  1  1 
 0  0  0  0  1  0  0  0  1  0 
 0  1  1  0  0  1  1  1  0  1 
 1  1  1  1  0  1  0  0  1  0 
 0  0  0  0  1  0  1  1  0  0 
 1  1  1  1  0  0  0  0  0  0 
 0  0  1  0  0  1  1  1  0  1 

 1  0  1  0  1  0  1  0  0  1 
 1  1  0  1  0  1  0  0  0  1 
 0  0  1  1  0  1  1  0  1  0 
 0  0  0  1  0  1  0  1  0  0 
 1  0  1  0  1  0  1  0  0  1 
 1  1  0  0  0  0  0  1  1  1 
 0  0  1  0  1  0  1  1  0  0 
 1  1  1  1  0  1  1  0  1  1 
 1  0  0  0  0  0  0  1  1  1 
 0  0  1  1  1  1  1  0  0  0 
 1  0  1  0  1  0  1  0  1  1 
 1  1  0  1  1  1  0  0  0  1 

 0  0  1  1  1  0  0  1  1  0 
 1  0  0  0  0  1  1  0  0  0 
 1  1  1  1  0  1  0  0  0  0 
 1  0  1  1  0  1  0  0  0  1 
 0  0  0  0  1  0  0  1  1  0 
 0  0  0  0  0  0  1  0  0  1 
 0  0  1  1  1  0  0  1  1  1 
 1  0  0  0  0  1  1  0  0  0 
 0  1  0  0  0  0  0  0  0  1 
 1  0  1  1  1  1  0  1  1  0 
 0  1  0  0  1  0  0  1  1  0 
 1  0  0  0  1  1  1  1  1  0 

 0  1  0  1  1  0  0  1  1  1 
 0  1  1  0  0  0  0  1  0  1 
 0  0  0  0  1  1  0  0  1  0 
 1  0  0  0  0  0  1  0  0  0 
 0  1  0  1  1  0  0  0  1  1 
 1  1  1  0  0  0  1  1  0  1 
 1  0  0  1  1  0  1  0  1  0 
 0  1  1  0  1  0  0  1  1  1 
 1  1  0  0  0  1  1  1  0  1 
 0  0  0  1  1  0  0  0  1  0 
 0  1  0  1  1  1  0  0  1  1 
 0  1  1  1  0  0  0  1  0  1 

 1  0  1  0  1  0  0  0  1  1 
 1  0  0  1  1  0  0  0  1  1 
 0  0  1  0  0  1  1  1  0  0 
 0  1  0  0  0  0  0  0  0  0 
 0  0  1  0  1  0  0  0  0  1 
 1  1  0  1  1  1  1  1  1  1 
 0  1  1  0  0  0  0  0  0  0 
 1  0  1  1  1  1  1  1  1  1 
 1  1  0  0  1  1  1  1  1  1 
 0  0  1  0  0  0  0  0  0  0 
 0  0  1  0  1  1  1  1  0  1 
 1  0  0  1  1  0  0  0  1  1 

 0  1  1  0  0  1  0  0  1  1 
 0  1  0  0  0  0  0  0  0  0 
 1  0  1  1  1  1  1  1  1  1 
 0  0  0  0  0  1  0  0  1  0 
 0  1  1  0  0  0  0  0  0  1 
 0  1  0  0  0  0  1  1  0  0 
 0  0  1  0  0  1  0  0  1  1 
 0  1  1  0  0  0  1  1  0  1 
 1  1  0  1  1  0  1  1  0  0 
 0  0  1  0  0  1  0  0  1  1 
 1  1  1  1  1  0  1  1  0  1 
 0  1  0  0  0  0  0  0  0  0 

 0  0  0  1  1  1  1  1  0  1 
 0  0  1  1  0  0  1  0  1  0 
 1  0  0  0  1  0  0  1  0  1 
 0  1  0  0  1  0  0  1  0  0 
 0  0  0  1  0  1  1  0  0  1 
 0  1  1  1  0  0  1  0  1  0 
 0  1  0  0  1  1  0  1  0  1 
 0  0  1  1  0  0  1  0  1  1 
 1  1  0  1  0  0  1  0  0  0 
 0  0  0  0  1  1  0  1  0  1 
 1  0  0  1  0  1  1  0  0  1 
 0  0  1  1  0  1  1  0  1  0 

 1  1  1  0  1  0  0  0  0  0 
 1  1  1  0  1  0  0  0  1  0 
 0  0  0  0  0  0  0  1  1  1 
 0  0  0  1  0  1  1  0  1  0 
 1  0  1  0  0  0  0  0  0  0 
 1  1  1  1  1  1  1  1  0  1 
 0  0  0  1  0  1  1  0  0  0 
 1  1  1  0  1  0  0  1  1  1 
 1  1  1  1  1  1  1  1  0  1 
 0  0  0  0  0  0  0  0  1  0 
 1  0  1  0  0  0  0  1  0  1 
 1  1  1  0  1  0  0  0  1  0 

 0  1  1  1  0  1  1  0  0  1 
 1  1  0  1  0  0  0  1  0  1 
 1  0  0  0  1  1  0  0  1  0 
 1  0  0  0  0  1  0  0  0  0 
 0  1  1  1  0  0  1  0  0  0 
 0  1  0  1  1  0  0  1  0  1 
 0  0  1  0  0  1  1  0  0  0 
 1  1  0  1  1  0  0  1  0  1 
 0  1  0  1  1  0  0  0  1  1 
 1  0  1  0  0  1  1  0  0  0 
 0  1  1  1  1  0  1  0  1  0 
 1  1  1  1  0  0  1  1  0  1 

 0  1  1  0  1  1  0  1  0  1 
 0  0  0  0  0  1  0  0  0  0 
 0  1  0  0  1  0  1  0  0  1 
 1  0  0  1  1  0  0  0  1  1 
 0  1  1  0  0  0  0  1  0  0 
 1  0  0  1  0  1  0  0  1  0 
 1  1  1  1  1  0  0  1  1  1 
 0  1  0  0  0  1  0  0  0  0 
 1  0  0  1  0  1  1  0  1  0 
 0  1  1  0  1  0  0  1  0  1 
 0  1  1  0  0  0  1  1  0  0 
 0  0  1  0  0  1  0  1  0  0 

 1  1  0  1  0  0  0  0  1  1 
 1  0  0  1  0  0  1  0  1  0 
 0  1  0  0  0  1  1  0  0  0 
 0  0  1  0  1  0  1  1  0  0 
 1  1  0  0  0  0  0  0  0  1 
 1  0  1  1  1  0  0  1  1  0 
 0  1  1  0  1  0  0  1  0  1 
 1  1  0  1  0  0  1  0  1  0 
 1  0  1  1  1  1  0  1  1  0 
 0  1  0  0  0  0  1  0  0  1 
 1  1  0  0  0  1  0  0  0  1 
 1  0  0  1  0  0  1  0  1  1 

 1  1  1  1  0  1  0  1  1  0 
 0  0  0  1  0  1  1  0  0  1 
 0  0  1  0  1  0  1  1  1  0 
 0  0  0  0  0  0  1  1  1  0 
 1  1  1  1  0  0  0  0  0  0 
 0  0  0  1  1  1  0  0  0  1 
 1  1  1  0  0  0  0  1  1  0 
 0  0  1  1  1  1  1  0  0  1 
 0  0  0  1  1  1  0  0  0  0 
 1  1  1  0  0  0  1  1  1  0 
 1  1  1  1  1  0  0  0  0  0 
 1  1  0  1  0  1  1  0  0  1 

 1  1  0  0  0  1  0  0  0  0 
 0  0  1  1  0  1  0  1  1  0 
 0  0  0  1  1  0  0  0  0  1 
 0  0  0  1  0  0  1  0  0  0 
 1  1  0  0  0  1  0  0  0  0 
 0  0  1  0  1  1  1  1  1  0 
 1  1  0  0  0  0  1  0  0  0 
 0  0  1  1  1  1  0  1  1  0 
 0  0  0  0  1  1  1  0  0  1 
 1  1  0  1  0  0  0  0  0  0 
 1  1  0  0  1  1  0  0  0  1 
 1  1  1  1  0  1  0  1  1  0 

 1  1  0  1  1  0  0  0  1  0 
 1  0  1  1  1  0  0  0  1  1 
 0  1  0  0  0  1  0  0  0  0 
 0  1  0  0  0  0  1  1  0  0 
 1  0  0  0  1  0  0  0  0  0 
 1  0  1  1  1  1  1  1  1  1 
 0  1  0  0  0  0  1  1  0  0 
 1  0  1  1  1  1  0  0  1  1 
 1  0  0  1  1  1  1  1  1  0 
 0  1  0  0  0  0  0  0  0  0 
 1  0  0  0  1  1  0  0  0  0 
 1  0  1  1  1  0  0  0  1  1 

 0  0  1  0  1  1  1  1  0  1 
 0  0  0  0  0  1  0  1  0  0 
 0  1  1  1  1  0  0  0  1  1 
 1  0  0  0  0  0  0  0  0  1 
 0  0  1  0  1  1  1  1  0  0 
 1  1  0  1  0  1  0  1  1  0 
 1  0  1  0  1  0  1  0  0  1 
 0  1  1  1  1  1  0  1  1  0 
 1  1  0  1  0  1  0  1  1  0 
 0  0  1  0  1  0  1  0  0  1 
 0  1  1  1  1  1  1  1  1  0 
 0  0  0  0  0  1  1  1  0  0 

 0  1  1  0  1  1  1  0  1  1 
 1  0  0  0  0  0  0  0  1  1 
 0  1  1  1  0  1  0  0  0  0 
 0  1  0  0  0  0  0  1  0  0 
 0  0  1  0  1  1  1  0  1  0 
 1  0  0  1  0  0  0  1  1  1 
 0  1  1  0  1  1  1  1  0  0 
 1  0  1  1  0  1  0  0  1  1 
 0  0  0  1  0  0  0  1  1  1 
 0  1  1  0  1  1  1  0  0  0 
 0  0  1  1  1  1  1  0  1  0 
 1  0  0  0  1  0  1  0  1  1 

 1  1  0  1  1  1  1  1  0  0 
 0  0  0  0  1  0  0  1  1  0 
 0  0  0  1  0  1  1  0  0  1 
 0  0  1  1  0  0  0  0  0  0 
 1  1  0  0  1  1  1  0  0  0 
 0  0  1  0  1  0  0  1  1  0 
 1  1  1  1  0  1  1  0  0  0 
 0  0  0  0  1  1  1  1  1  0 
 0  0  1  0  1  0  0  1  0  1 
 1  1  0  1  0  1  1  0  0  0 
 1  1  0  0  1  1  1  0  0  1 
 1  1  0  0  1  0  0  1  1  0 

 0  0  1  0  0  0  1  1  1  1 
 1  0  1  0  0  0  1  1  0  1 
 1  0  0  1  1  1  0  0  1  0 
 1  1  0  0  0  0  0  0  1  0 
 0  0  0  0  0  0  0  1  0  0 
 0  1  1  1  1  1  1  1  0  1 
 0  1  0  0  0  0  0  0  1  0 
 1  0  1  1  1  1  1  1  0  1 
 0  1  1  1  1  1  1  1  0  1 
 1  0  0  0  0  0  0  0  1  0 
 0  0  0  1  1  1  0  1  0  0 
 1  0  1  0  0  0  1  1  0  1 

 1  1  1  0  0  1  1  1  1  0 
 0  0  0  1  0  1  0  0  0  0 
 1  1  1  0  1  0  1  1  1  0 
 0  1  1  0  0  0  1  0  1  1 
 1  0  0  0  0  0  0  1  0  0 
 0  0  0  1  1  1  0  0  0  1 
 1  1  1  0  0  0  1  1  1  1 
 1  0  0  1  1  1  0  1  0  0 
 0  0  0  0  1  1  0  0  0  1 
 1  1  1  0  0  0  1  1  1  0 
 1  0  0  0  1  0  0  1  0  0 
 0  0  0  1  0  1  0  0  0  0 

 0  0  1  1  1  0  0  1  1  1 
 0  1  0  0  1  0  1  0  1  1 
 0  0  1  0  0  1  0  1  0  0 
 1  0  1  0  0  0  0  0  0  0 
 0  0  0  1  0  0  0  1  0  0 
 1  1  0  0  1  1  1  0  1  1 
 1  0  1  1  0  0  0  1  0  0 
 0  1  0  0  1  1  1  1  1  1 
 1  0  0  0  1  1  0  0  1  1 
 0  0  1  1  0  0  0  1  0  0 
 0  0  0  1  0  1  0  1  0  0 
 0  1  0  1  1  0  1  0  1  1 

 1  1  1  0  1  1  0  1  1  1 
 1  1  0  0  1  0  1  0  1  1 
 0  0  1  0  0  0  1  0  0  0 
 0  0  0  1  0  0  1  0  0  0 
 1  1  1  0  1  1  0  1  1  0 
 1  1  0  1  1  0  0  0  1  1 
 0  0  1  1  0  1  0  1  0  0 
 1  1  1  0  1  0  1  0  1  1 
 1  1  0  1  1  0  0  0  1  1 
 0  0  1  0  0  1  1  1  0  0 
 1  1  1  0  1  1  0  1  1  0 
 1  1  0  0  1  1  1  1  1  1 

 1  1  1  1  1  0  0  1  0  0 
 0  1  1  0  0  1  1  0  0  1 
 0  0  0  1  0  0  1  1  1  1 
 0  0  0  1  0  0  1  0  0  1 
 1  0  0  0  1  0  0  1  0  0 
 0  1  1  0  0  1  0  0  0  0 
 1  0  0  1  1  0  0  1  0  0 
 0  1  1  0  0  1  1  1  0  1 
 0  1  1  0  0  0  0  0  1  0 
 1  0  0  1  1  0  1  1  0  1 
 1  0  0  0  1  0  0  1  1  0 
 1  1  1  0  1  1  1  0  0  1 

 0  1  0  0  0  0  1  1  1  0 
 0  1  1  1  0  0  1  0  0  0 
 1  0  0  0  1  1  0  0  1  0 
 0  0  0  0  0  0  0  0  1  1 
 0  1  0  0  0  0  1  1  0  0 
 0  1  1  1  0  0  1  0  0  1 
 0  0  0  0  0  0  0  1  1  1 
 0  1  1  1  0  0  1  0  0  0 
 1  1  0  0  1  1  1  0  0  1 
 0  0  0  0  0  0  0  1  1  0 
 1  1  0  0  1  1  1  1  0  0 
 0  1  1  1  0  0  1  1  0  0 
